30_ders_advanced/system.glm
#set relax_naming_rules=1
#set profiler=0
#set double_format=%+.12lg
#set complex_format=%+.12lg%+.12lf%c
#set verbose=0

clock {
	timezone PST+8PDT;
	starttime '2001-08-01 12:00:00';
	stoptime '2001-08-01 12:00:03';
}

module tape;

module powerflow;

module generators;

module connection;

object helics_msg {
	name GLD1;
	configure gld_config.json;
}

object regulator_configuration {
	name regulator_config_150_150r;
	raise_taps 16;
	lower_taps 16;
	connect_type 1;
	tap_pos_A 6.0;
	tap_pos_B 6.0;
	tap_pos_C 6.0;
	control_level INDIVIDUAL;
	Control MANUAL;
}

object regulator_configuration {
	name regulator_config_9_9r;
	raise_taps 16;
	lower_taps 16;
	connect_type 1;
	tap_pos_A 0.0;
	tap_pos_B 0.0;
	tap_pos_C 0.0;
	control_level INDIVIDUAL;
	Control MANUAL;
}

object regulator_configuration {
	name regulator_config_25_25r;
	raise_taps 16;
	lower_taps 16;
	connect_type 1;
	tap_pos_A 2.0;
	tap_pos_B 0.0;
	tap_pos_C 0.0;
	control_level INDIVIDUAL;
	Control MANUAL;
}

object regulator_configuration {
	name regulator_config_160_160r;
	raise_taps 16;
	lower_taps 16;
	connect_type 1;
	tap_pos_A 8.0;
	tap_pos_B 2.0;
	tap_pos_C 5.0;
	control_level INDIVIDUAL;
	Control MANUAL;
}

object regulator_configuration {
	name regulator_config_61s_610;
	raise_taps 16;
	lower_taps 16;
	connect_type 1;
	tap_pos_A 0.0;
	tap_pos_B 0.0;
	tap_pos_C 0.0;
	control_level INDIVIDUAL;
	Control MANUAL;
}

object regulator {
	name regulator_150_150r;
	from node_150;
	to node_150r;
	phases ABC;
	configuration regulator_config_150_150r;
}

object regulator {
	name regulator_9_9r;
	from node_9;
	to node_9r;
	phases A;
	configuration regulator_config_9_9r;
}

object regulator {
	name regulator_25_25r;
	from node_25;
	to node_25r;
	phases AC;
	configuration regulator_config_25_25r;
}

object regulator {
	name regulator_160_160r;
	from node_160;
	to node_160r;
	phases ABC;
	configuration regulator_config_160_160r;
}

object regulator {
	name regulator_61s_610;
	from node_61s;
	to node_610;
	phases ABC;
	configuration regulator_config_61s_610;
}

object switch {
	name switch_150r_149;
	from node_150r;
	to node_149;
	phases ABC;
	status CLOSED;
}

object switch {
	name switch_97_197;
	from node_97;
	to node_197;
	phases ABC;
	status CLOSED;
}

object switch {
	name switch_18_135;
	from node_18;
	to node_135;
	phases ABC;
	status CLOSED;
}

object switch {
	name switch_13_152;
	from node_13;
	to node_152;
	phases ABC;
	status CLOSED;
}

object switch {
	name switch_60_160;
	from node_60;
	to node_160;
	phases ABC;
	status CLOSED;
}

object switch {
	name switch_61_61s;
	from node_61;
	to node_61s;
	phases ABC;
	status CLOSED;
}

object line_configuration {
	name line_config_149_1;
	z11 0.03466666679999948+0.08166666679999987j;
	z12 0.011818181999999544+0.038007575599999684j;
	z13 0.011628787999999852+0.029159090799999763j;
	z21 0.011818181999999544+0.038007575599999684j;
	z22 0.03534848479999963+0.07940909079999961j;
	z23 0.011969696799999967+0.03209090919999944j;
	z31 0.011628787999999852+0.029159090799999763j;
	z32 0.011969696799999967+0.03209090919999944j;
	z33 0.03496212119999952+0.08068939399999978j;
}

object line_configuration {
	name line_config_1_2;
	z11 0;
	z12 0;
	z13 0;
	z21 0;
	z22 0.0440549241999999+0.044661458274999656j;
	z23 0;
	z31 0;
	z32 0;
	z33 0;
}

object line_configuration {
	name line_config_1_3;
	z11 0;
	z12 0;
	z13 0;
	z21 0;
	z22 0;
	z23 0;
	z31 0;
	z32 0;
	z33 0.06293560599999978+0.0638020832499996j;
}

object line_configuration {
	name line_config_1_7;
	z11 0.026000000099999615+0.06125000009999961j;
	z12 0.008863636499999945+0.02850568169999962j;
	z13 0.008721590999999888+0.021869318099999965j;
	z21 0.008863636499999945+0.02850568169999962j;
	z22 0.026511363599999865+0.05955681809999956j;
	z23 0.008977272599999687+0.024068181899999437j;
	z31 0.008721590999999888+0.021869318099999965j;
	z32 0.008977272599999687+0.024068181899999437j;
	z33 0.026221590899999498+0.060517045499999984j;
}

object line_configuration {
	name line_config_3_4;
	z11 0;
	z12 0;
	z13 0;
	z21 0;
	z22 0;
	z23 0;
	z31 0;
	z32 0;
	z33 0.050348484799999475+0.051041666599999445j;
}

object line_configuration {
	name line_config_3_5;
	z11 0;
	z12 0;
	z13 0;
	z21 0;
	z22 0;
	z23 0;
	z31 0;
	z32 0;
	z33 0.08181628779999965+0.08294270822499954j;
}

object line_configuration {
	name line_config_5_6;
	z11 0;
	z12 0;
	z13 0;
	z21 0;
	z22 0;
	z23 0;
	z31 0;
	z32 0;
	z33 0.06293560599999978+0.0638020832499996j;
}

object line_configuration {
	name line_config_7_8;
	z11 0.01733333339999974+0.040833333399999935j;
	z12 0.005909090999999772+0.019003787799999557j;
	z13 0.005814393999999926+0.014579545399999594j;
	z21 0.005909090999999772+0.019003787799999557j;
	z22 0.017674242399999523+0.039704545399999513j;
	z23 0.005984848399999984+0.016045454599999433j;
	z31 0.005814393999999926+0.014579545399999594j;
	z32 0.005984848399999984+0.016045454599999433j;
	z33 0.01748106059999947+0.0403446969999996j;
}

object line_configuration {
	name line_config_8_12;
	z11 0;
	z12 0;
	z13 0;
	z21 0;
	z22 0.05664204539999963+0.05742187492499981j;
	z23 0;
	z31 0;
	z32 0;
	z33 0;
}

object line_configuration {
	name line_config_8_9;
	z11 0.05664204539999963+0.05742187492499981j;
	z12 0;
	z13 0;
	z21 0;
	z22 0;
	z23 0;
	z31 0;
	z32 0;
	z33 0;
}

object line_configuration {
	name line_config_8_13;
	z11 0.026000000099999615+0.06125000009999961j;
	z12 0.008863636499999945+0.02850568169999962j;
	z13 0.008721590999999888+0.021869318099999965j;
	z21 0.008863636499999945+0.02850568169999962j;
	z22 0.026511363599999865+0.05955681809999956j;
	z23 0.008977272599999687+0.024068181899999437j;
	z31 0.008721590999999888+0.021869318099999965j;
	z32 0.008977272599999687+0.024068181899999437j;
	z33 0.026221590899999498+0.060517045499999984j;
}

object line_configuration {
	name line_config_9r_14;
	z11 0.10699053019999968+0.10846354152499983j;
	z12 0;
	z13 0;
	z21 0;
	z22 0;
	z23 0;
	z31 0;
	z32 0;
	z33 0;
}

object line_configuration {
	name line_config_13_34;
	z11 0;
	z12 0;
	z13 0;
	z21 0;
	z22 0;
	z23 0;
	z31 0;
	z32 0;
	z33 0.03776136359999975+0.038281249949999874j;
}

object line_configuration {
	name line_config_13_18;
	z11 0.07290624989999948+0.16378124977499953j;
	z12 0.02468749799999988+0.06618750022499946j;
	z13 0.02437500037499971+0.07839062467499996j;
	z21 0.02468749799999988+0.06618750022499946j;
	z22 0.07210937497499963+0.1664218751249995j;
	z23 0.023984375249999836+0.0601406247749999j;
	z31 0.02437500037499971+0.07839062467499996j;
	z32 0.023984375249999836+0.0601406247749999j;
	z33 0.07150000027499966+0.16843750027499993j;
}

object line_configuration {
	name line_config_14_11;
	z11 0.06293560599999978+0.0638020832499996j;
	z12 0;
	z13 0;
	z21 0;
	z22 0;
	z23 0;
	z31 0;
	z32 0;
	z33 0;
}

object line_configuration {
	name line_config_14_10;
	z11 0.06293560599999978+0.0638020832499996j;
	z12 0;
	z13 0;
	z21 0;
	z22 0;
	z23 0;
	z31 0;
	z32 0;
	z33 0;
}

object line_configuration {
	name line_config_34_15;
	z11 0;
	z12 0;
	z13 0;
	z21 0;
	z22 0;
	z23 0;
	z31 0;
	z32 0;
	z33 0.02517424239999945+0.025520833299999723j;
}

object line_configuration {
	name line_config_15_16;
	z11 0;
	z12 0;
	z13 0;
	z21 0;
	z22 0;
	z23 0;
	z31 0;
	z32 0;
	z33 0.09440340899999995+0.09570312487499967j;
}

object line_configuration {
	name line_config_15_17;
	z11 0;
	z12 0;
	z13 0;
	z21 0;
	z22 0;
	z23 0;
	z31 0;
	z32 0;
	z33 0.0881098483999998+0.0893229165499999j;
}

object line_configuration {
	name line_config_18_19;
	z11 0.06293560599999978+0.0638020832499996j;
	z12 0;
	z13 0;
	z21 0;
	z22 0;
	z23 0;
	z31 0;
	z32 0;
	z33 0;
}

object line_configuration {
	name line_config_18_21;
	z11 0.026511363599999865+0.05955681809999956j;
	z12 0.008977271999999537+0.024068181899999437j;
	z13 0.008863636499999945+0.02850568169999962j;
	z21 0.008977271999999537+0.024068181899999437j;
	z22 0.026221590899999498+0.060517045499999984j;
	z23 0.008721590999999888+0.021869318099999965j;
	z31 0.008863636499999945+0.02850568169999962j;
	z32 0.008721590999999888+0.021869318099999965j;
	z33 0.026000000099999615+0.06125000009999961j;
}

object line_configuration {
	name line_config_19_20;
	z11 0.08181628779999965+0.08294270822499954j;
	z12 0;
	z13 0;
	z21 0;
	z22 0;
	z23 0;
	z31 0;
	z32 0;
	z33 0;
}

object line_configuration {
	name line_config_21_22;
	z11 0;
	z12 0;
	z13 0;
	z21 0;
	z22 0.1321647725999997+0.13398437482499956j;
	z23 0;
	z31 0;
	z32 0;
	z33 0;
}

object line_configuration {
	name line_config_21_23;
	z11 0.022092802999999984+0.04963068174999954j;
	z12 0.007481059999999806+0.02005681824999943j;
	z13 0.00738636374999986+0.02375473474999959j;
	z21 0.007481059999999806+0.02005681824999943j;
	z22 0.021851325749999484+0.0504308712499995j;
	z23 0.007267992499999618+0.01822443174999978j;
	z31 0.00738636374999986+0.02375473474999959j;
	z32 0.007267992499999618+0.01822443174999978j;
	z33 0.021666666749999966+0.05104166674999977j;
}

object line_configuration {
	name line_config_23_24;
	z11 0;
	z12 0;
	z13 0;
	z21 0;
	z22 0;
	z23 0;
	z31 0;
	z32 0;
	z33 0.13845833319999987+0.14036458314999992j;
}

object line_configuration {
	name line_config_23_25;
	z11 0.024302083299999635+0.05459374992499984j;
	z12 0.00822916599999996+0.022062500074999436j;
	z13 0.008125000124999903+0.026130208224999604j;
	z21 0.00822916599999996+0.022062500074999436j;
	z22 0.02403645832499949+0.05547395837499946j;
	z23 0.007994791749999753+0.020046874924999583j;
	z31 0.008125000124999903+0.026130208224999604j;
	z32 0.007994791749999753+0.020046874924999583j;
	z33 0.0238333334249995+0.05614583342499998j;
}

object line_configuration {
	name line_config_25r_26;
	z11 0.030333333449999837+0.07145833344999945j;
	z12 0;
	z13 0.010175189499999581+0.025514204449999574j;
	z21 0;
	z22 0;
	z23 0;
	z31 0.010175189499999581+0.025514204449999574j;
	z32 0;
	z33 0.030591856049999512+0.07060321974999988j;
}

object line_configuration {
	name line_config_25_28;
	z11 0.017674242399999523+0.039704545399999513j;
	z12 0.005984847999999499+0.016045454599999433j;
	z13 0.005909090999999772+0.019003787799999557j;
	z21 0.005984847999999499+0.016045454599999433j;
	z22 0.01748106059999947+0.0403446969999996j;
	z23 0.005814393999999926+0.014579545399999594j;
	z31 0.005909090999999772+0.019003787799999557j;
	z32 0.005814393999999926+0.014579545399999594j;
	z33 0.01733333339999974+0.040833333399999935j;
}

object line_configuration {
	name line_config_26_27;
	z11 0.0238333334249995+0.05614583342499998j;
	z12 0;
	z13 0.007994791749999753+0.020046874924999583j;
	z21 0;
	z22 0;
	z23 0;
	z31 0.007994791749999753+0.020046874924999583j;
	z32 0;
	z33 0.02403645832499949+0.05547395837499946j;
}

object line_configuration {
	name line_config_26_31;
	z11 0;
	z12 0;
	z13 0;
	z21 0;
	z22 0;
	z23 0;
	z31 0;
	z32 0;
	z33 0.05664204539999963+0.05742187492499981j;
}

object line_configuration {
	name line_config_27_33;
	z11 0.12587121199999957+0.12760416649999975j;
	z12 0;
	z13 0;
	z21 0;
	z22 0;
	z23 0;
	z31 0;
	z32 0;
	z33 0;
}

object line_configuration {
	name line_config_28_29;
	z11 0.026511363599999865+0.05955681809999956j;
	z12 0.008977271999999537+0.024068181899999437j;
	z13 0.008863636499999945+0.02850568169999962j;
	z21 0.008977271999999537+0.024068181899999437j;
	z22 0.026221590899999498+0.060517045499999984j;
	z23 0.008721590999999888+0.021869318099999965j;
	z31 0.008863636499999945+0.02850568169999962j;
	z32 0.008721590999999888+0.021869318099999965j;
	z33 0.026000000099999615+0.06125000009999961j;
}

object line_configuration {
	name line_config_29_30;
	z11 0.030929924199999747+0.06948295444999958j;
	z12 0.010473483999999844+0.02807954554999944j;
	z13 0.010340909249999457+0.033256628649999655j;
	z21 0.010473483999999844+0.02807954554999944j;
	z22 0.030591856049999512+0.07060321974999988j;
	z23 0.010175189499999581+0.025514204449999574j;
	z31 0.010340909249999457+0.033256628649999655j;
	z32 0.010175189499999581+0.025514204449999574j;
	z33 0.030333333449999837+0.07145833344999945j;
}

object line_configuration {
	name line_config_30_250;
	z11 0.017674242399999523+0.039704545399999513j;
	z12 0.005984847999999499+0.016045454599999433j;
	z13 0.005909090999999772+0.019003787799999557j;
	z21 0.005984847999999499+0.016045454599999433j;
	z22 0.01748106059999947+0.0403446969999996j;
	z23 0.005814393999999926+0.014579545399999594j;
	z31 0.005909090999999772+0.019003787799999557j;
	z32 0.005814393999999926+0.014579545399999594j;
	z33 0.01733333339999974+0.040833333399999935j;
}

object line_configuration {
	name line_config_31_32;
	z11 0;
	z12 0;
	z13 0;
	z21 0;
	z22 0;
	z23 0;
	z31 0;
	z32 0;
	z33 0.0755227271999995+0.07656249989999975j;
}

object line_configuration {
	name line_config_135_35;
	z11 0.03277698862499952+0.07564630687499983j;
	z12 0.011221590749999897+0.03008522737499944j;
	z13 0.010901988749999716+0.027336647624999953j;
	z21 0.011221590749999897+0.03008522737499944j;
	z22 0.03313920449999998+0.07444602262499989j;
	z23 0.0110795456249995+0.03563210212499967j;
	z31 0.010901988749999716+0.027336647624999953j;
	z32 0.0110795456249995+0.03563210212499967j;
	z33 0.03250000012499995+0.07656250012499966j;
}

object line_configuration {
	name line_config_35_36;
	z11 0.056333333549999455+0.13270833354999964j;
	z12 0.01889678049999947+0.047383522549999536j;
	z13 0;
	z21 0.01889678049999947+0.047383522549999536j;
	z22 0.05681344694999958+0.13112026524999984j;
	z23 0;
	z31 0;
	z32 0;
	z33 0;
}

object line_configuration {
	name line_config_35_40;
	z11 0.021666666749999966+0.05104166674999977j;
	z12 0.00738636374999986+0.02375473474999959j;
	z13 0.007267992499999618+0.01822443174999978j;
	z21 0.00738636374999986+0.02375473474999959j;
	z22 0.022092802999999984+0.04963068174999954j;
	z23 0.007481060499999546+0.02005681824999943j;
	z31 0.007267992499999618+0.01822443174999978j;
	z32 0.007481060499999546+0.02005681824999943j;
	z33 0.021851325749999484+0.0504308712499995j;
}

object line_configuration {
	name line_config_36_37;
	z11 0.0755227271999995+0.07656249989999975j;
	z12 0;
	z13 0;
	z21 0;
	z22 0;
	z23 0;
	z31 0;
	z32 0;
	z33 0;
}

object line_configuration {
	name line_config_36_38;
	z11 0;
	z12 0;
	z13 0;
	z21 0;
	z22 0.06293560599999978+0.0638020832499996j;
	z23 0;
	z31 0;
	z32 0;
	z33 0;
}

object line_configuration {
	name line_config_38_39;
	z11 0;
	z12 0;
	z13 0;
	z21 0;
	z22 0.08181628779999965+0.08294270822499954j;
	z23 0;
	z31 0;
	z32 0;
	z33 0;
}

object line_configuration {
	name line_config_40_41;
	z11 0;
	z12 0;
	z13 0;
	z21 0;
	z22 0;
	z23 0;
	z31 0;
	z32 0;
	z33 0.08181628779999965+0.08294270822499954j;
}

object line_configuration {
	name line_config_40_42;
	z11 0.021666666749999966+0.05104166674999977j;
	z12 0.00738636374999986+0.02375473474999959j;
	z13 0.007267992499999618+0.01822443174999978j;
	z21 0.00738636374999986+0.02375473474999959j;
	z22 0.022092802999999984+0.04963068174999954j;
	z23 0.007481060499999546+0.02005681824999943j;
	z31 0.007267992499999618+0.01822443174999978j;
	z32 0.007481060499999546+0.02005681824999943j;
	z33 0.021851325749999484+0.0504308712499995j;
}

object line_configuration {
	name line_config_42_43;
	z11 0;
	z12 0;
	z13 0;
	z21 0;
	z22 0.12587121199999957+0.12760416649999975j;
	z23 0;
	z31 0;
	z32 0;
	z33 0;
}

object line_configuration {
	name line_config_42_44;
	z11 0.01733333339999974+0.040833333399999935j;
	z12 0.005909090999999772+0.019003787799999557j;
	z13 0.005814393999999926+0.014579545399999594j;
	z21 0.005909090999999772+0.019003787799999557j;
	z22 0.017674242399999523+0.039704545399999513j;
	z23 0.005984848399999984+0.016045454599999433j;
	z31 0.005814393999999926+0.014579545399999594j;
	z32 0.005984848399999984+0.016045454599999433j;
	z33 0.01748106059999947+0.0403446969999996j;
}

object line_configuration {
	name line_config_44_45;
	z11 0.050348484799999475+0.051041666599999445j;
	z12 0;
	z13 0;
	z21 0;
	z22 0;
	z23 0;
	z31 0;
	z32 0;
	z33 0;
}

object line_configuration {
	name line_config_44_47;
	z11 0.021666666749999966+0.05104166674999977j;
	z12 0.00738636374999986+0.02375473474999959j;
	z13 0.007267992499999618+0.01822443174999978j;
	z21 0.00738636374999986+0.02375473474999959j;
	z22 0.022092802999999984+0.04963068174999954j;
	z23 0.007481060499999546+0.02005681824999943j;
	z31 0.007267992499999618+0.01822443174999978j;
	z32 0.007481060499999546+0.02005681824999943j;
	z33 0.021851325749999484+0.0504308712499995j;
}

object line_configuration {
	name line_config_45_46;
	z11 0.0755227271999995+0.07656249989999975j;
	z12 0;
	z13 0;
	z21 0;
	z22 0;
	z23 0;
	z31 0;
	z32 0;
	z33 0;
}

object line_configuration {
	name line_config_47_48;
	z11 0.013110795449999461+0.0302585227499997j;
	z12 0.004488636299999843+0.01203409094999943j;
	z13 0.004360795499999656+0.010934659049999983j;
	z21 0.004488636299999843+0.01203409094999943j;
	z22 0.013255681799999641+0.029778409049999493j;
	z23 0.004431818249999685+0.014252840849999523j;
	z31 0.004360795499999656+0.010934659049999983j;
	z32 0.004431818249999685+0.014252840849999523j;
	z33 0.013000000049999518+0.030625000049999514j;
}

object line_configuration {
	name line_config_47_49;
	z11 0.021851325749999484+0.0504308712499995j;
	z12 0.007481060499999546+0.02005681824999943j;
	z13 0.007267992499999618+0.01822443174999978j;
	z21 0.007481060499999546+0.02005681824999943j;
	z22 0.022092802999999984+0.04963068174999954j;
	z23 0.00738636374999986+0.02375473474999959j;
	z31 0.007267992499999618+0.01822443174999978j;
	z32 0.00738636374999986+0.02375473474999959j;
	z33 0.021666666749999966+0.05104166674999977j;
}

object line_configuration {
	name line_config_49_50;
	z11 0.021851325749999484+0.0504308712499995j;
	z12 0.007481060499999546+0.02005681824999943j;
	z13 0.007267992499999618+0.01822443174999978j;
	z21 0.007481060499999546+0.02005681824999943j;
	z22 0.022092802999999984+0.04963068174999954j;
	z23 0.00738636374999986+0.02375473474999959j;
	z31 0.007267992499999618+0.01822443174999978j;
	z32 0.00738636374999986+0.02375473474999959j;
	z33 0.021666666749999966+0.05104166674999977j;
}

object line_configuration {
	name line_config_50_51;
	z11 0.021851325749999484+0.0504308712499995j;
	z12 0.007481060499999546+0.02005681824999943j;
	z13 0.007267992499999618+0.01822443174999978j;
	z21 0.007481060499999546+0.02005681824999943j;
	z22 0.022092802999999984+0.04963068174999954j;
	z23 0.00738636374999986+0.02375473474999959j;
	z31 0.007267992499999618+0.01822443174999978j;
	z32 0.00738636374999986+0.02375473474999959j;
	z33 0.021666666749999966+0.05104166674999977j;
}

object line_configuration {
	name line_config_51_151;
	z11 0.043702651499999544+0.10086174249999959j;
	z12 0.01496212099999967+0.040113636499999446j;
	z13 0.014535984999999814+0.03644886349999956j;
	z21 0.01496212099999967+0.040113636499999446j;
	z22 0.04418560599999997+0.09926136349999964j;
	z23 0.01477272749999972+0.04750946949999975j;
	z31 0.014535984999999814+0.03644886349999956j;
	z32 0.01477272749999972+0.04750946949999975j;
	z33 0.04333333349999993+0.10208333349999954j;
}

object line_configuration {
	name line_config_152_52;
	z11 0.03466666679999948+0.08166666679999987j;
	z12 0.011818181999999544+0.038007575599999684j;
	z13 0.011628787999999852+0.029159090799999763j;
	z21 0.011818181999999544+0.038007575599999684j;
	z22 0.03534848479999963+0.07940909079999961j;
	z23 0.011969696799999967+0.03209090919999944j;
	z31 0.011628787999999852+0.029159090799999763j;
	z32 0.011969696799999967+0.03209090919999944j;
	z33 0.03496212119999952+0.08068939399999978j;
}

object line_configuration {
	name line_config_52_53;
	z11 0.01733333339999974+0.040833333399999935j;
	z12 0.005909090999999772+0.019003787799999557j;
	z13 0.005814393999999926+0.014579545399999594j;
	z21 0.005909090999999772+0.019003787799999557j;
	z22 0.017674242399999523+0.039704545399999513j;
	z23 0.005984848399999984+0.016045454599999433j;
	z31 0.005814393999999926+0.014579545399999594j;
	z32 0.005984848399999984+0.016045454599999433j;
	z33 0.01748106059999947+0.0403446969999996j;
}

object line_configuration {
	name line_config_53_54;
	z11 0.010833333374999983+0.025520833374999885j;
	z12 0.0036931818749996407+0.011877367374999505j;
	z13 0.0036339962499995207+0.0091122158749996j;
	z21 0.0036931818749996407+0.011877367374999505j;
	z22 0.011046401499999992+0.02481534087499977j;
	z23 0.003740530249999773+0.01002840912499943j;
	z31 0.0036339962499995207+0.0091122158749996j;
	z32 0.003740530249999773+0.01002840912499943j;
	z33 0.010925662874999454+0.02521543562499975j;
}

object line_configuration {
	name line_config_54_55;
	z11 0.0238333334249995+0.05614583342499998j;
	z12 0.008125000124999903+0.026130208224999604j;
	z13 0.007994791749999753+0.020046874924999583j;
	z21 0.008125000124999903+0.026130208224999604j;
	z22 0.024302083299999635+0.05459374992499984j;
	z23 0.008229166549999617+0.022062500074999436j;
	z31 0.007994791749999753+0.020046874924999583j;
	z32 0.008229166549999617+0.022062500074999436j;
	z33 0.02403645832499949+0.05547395837499946j;
}

object line_configuration {
	name line_config_54_57;
	z11 0.030591856049999512+0.07060321974999988j;
	z12 0.010175189499999581+0.025514204449999574j;
	z13 0.010473484699999827+0.02807954554999944j;
	z21 0.010175189499999581+0.025514204449999574j;
	z22 0.030333333449999837+0.07145833344999945j;
	z23 0.010340909249999457+0.033256628649999655j;
	z31 0.010473484699999827+0.02807954554999944j;
	z32 0.010340909249999457+0.033256628649999655j;
	z33 0.030929924199999747+0.06948295444999958j;
}

object line_configuration {
	name line_config_55_56;
	z11 0.0238333334249995+0.05614583342499998j;
	z12 0.008125000124999903+0.026130208224999604j;
	z13 0.007994791749999753+0.020046874924999583j;
	z21 0.008125000124999903+0.026130208224999604j;
	z22 0.024302083299999635+0.05459374992499984j;
	z23 0.008229166549999617+0.022062500074999436j;
	z31 0.007994791749999753+0.020046874924999583j;
	z32 0.008229166549999617+0.022062500074999436j;
	z33 0.02403645832499949+0.05547395837499946j;
}

object line_configuration {
	name line_config_57_58;
	z11 0;
	z12 0;
	z13 0;
	z21 0;
	z22 0.06293560599999978+0.0638020832499996j;
	z23 0;
	z31 0;
	z32 0;
	z33 0;
}

object line_configuration {
	name line_config_57_60;
	z11 0.0655539772499996+0.15129261374999967j;
	z12 0.021803977499999433+0.054673295249999906j;
	z13 0.022443181499999795+0.06017045474999945j;
	z21 0.021803977499999433+0.054673295249999906j;
	z22 0.0650000002499999+0.1531250002499999j;
	z23 0.02215909124999958+0.07126420424999991j;
	z31 0.022443181499999795+0.06017045474999945j;
	z32 0.02215909124999958+0.07126420424999991j;
	z33 0.06627840899999995+0.14889204524999977j;
}

object line_configuration {
	name line_config_58_59;
	z11 0;
	z12 0;
	z13 0;
	z21 0;
	z22 0.06293560599999978+0.0638020832499996j;
	z23 0;
	z31 0;
	z32 0;
	z33 0;
}

object line_configuration {
	name line_config_60_61;
	z11 0.04860416659999984+0.10918749984999968j;
	z12 0.016250000249999806+0.05226041644999979j;
	z13 0.01645833309999981+0.04412500014999945j;
	z21 0.016250000249999806+0.05226041644999979j;
	z22 0.04766666684999958+0.11229166684999996j;
	z23 0.015989583499999505+0.04009374984999974j;
	z31 0.01645833309999981+0.04412500014999945j;
	z32 0.015989583499999505+0.04009374984999974j;
	z33 0.04807291664999956+0.11094791674999947j;
}

object line_configuration {
	name line_config_60_62;
	z11 0.07201231049999965+0.03561079549999973j;
	z12 0.024611742499999954+0.013139204499999788j;
	z13 0.023314393999999943+0.010213068249999603j;
	z21 0.024611742499999954+0.013139204499999788j;
	z22 0.07258049249999989+0.03391098474999994j;
	z23 0.024611742499999954+0.013139204499999788j;
	z31 0.023314393999999943+0.010213068249999603j;
	z32 0.024611742499999954+0.013139204499999788j;
	z33 0.07201231049999965+0.03561079549999973j;
}

object line_configuration {
	name line_config_62_63;
	z11 0.05040861734999959+0.024927556849999522j;
	z12 0.017228219749999968+0.009197443149999505j;
	z13 0.01632007579999944+0.00714914777499955j;
	z21 0.017228219749999968+0.009197443149999505j;
	z22 0.05080634474999951+0.023737689324999676j;
	z23 0.017228219749999968+0.009197443149999505j;
	z31 0.01632007579999944+0.00714914777499955j;
	z32 0.017228219749999968+0.009197443149999505j;
	z33 0.05040861734999959+0.024927556849999522j;
}

object line_configuration {
	name line_config_63_64;
	z11 0.10081723469999974+0.04985511369999963j;
	z12 0.034456439499999936+0.018394886299999587j;
	z13 0.03264015159999946+0.014298295549999675j;
	z21 0.034456439499999936+0.018394886299999587j;
	z22 0.1016126894999996+0.04747537864999992j;
	z23 0.034456439499999936+0.018394886299999587j;
	z31 0.03264015159999946+0.014298295549999675j;
	z32 0.034456439499999936+0.018394886299999587j;
	z33 0.10081723469999974+0.04985511369999963j;
}

object line_configuration {
	name line_config_64_65;
	z11 0.12242092784999982+0.06053835234999983j;
	z12 0.04183996224999992+0.022336647649999868j;
	z13 0.03963446979999997+0.01736221602499973j;
	z21 0.04183996224999992+0.022336647649999868j;
	z22 0.12338683724999998+0.057648674074999615j;
	z23 0.04183996224999992+0.022336647649999868j;
	z31 0.03963446979999997+0.01736221602499973j;
	z32 0.04183996224999992+0.022336647649999868j;
	z33 0.12242092784999982+0.06053835234999983j;
}

object line_configuration {
	name line_config_65_66;
	z11 0.09361600364999971+0.046294034149999934j;
	z12 0.03199526524999994+0.01708096584999949j;
	z13 0.030308712199999872+0.01327698872499966j;
	z21 0.03199526524999994+0.01708096584999949j;
	z22 0.09435464024999968+0.044084280174999636j;
	z23 0.03199526524999994+0.01708096584999949j;
	z31 0.030308712199999872+0.01327698872499966j;
	z32 0.03199526524999994+0.01708096584999949j;
	z33 0.09361600364999971+0.046294034149999934j;
}

object line_configuration {
	name line_config_160r_67;
	z11 0.030333333449999837+0.07145833344999945j;
	z12 0.010175189499999581+0.025514204449999574j;
	z13 0.010340909249999457+0.033256628649999655j;
	z21 0.010175189499999581+0.025514204449999574j;
	z22 0.030591856049999512+0.07060321974999988j;
	z23 0.010473484699999827+0.02807954554999944j;
	z31 0.010340909249999457+0.033256628649999655j;
	z32 0.010473484699999827+0.02807954554999944j;
	z33 0.030929924199999747+0.06948295444999958j;
}

object line_configuration {
	name line_config_67_68;
	z11 0.050348484799999475+0.051041666599999445j;
	z12 0;
	z13 0;
	z21 0;
	z22 0;
	z23 0;
	z31 0;
	z32 0;
	z33 0;
}

object line_configuration {
	name line_config_67_72;
	z11 0.02403645832499949+0.05547395837499946j;
	z12 0.007994791749999753+0.020046874924999583j;
	z13 0.008229166549999617+0.022062500074999436j;
	z21 0.007994791749999753+0.020046874924999583j;
	z22 0.0238333334249995+0.05614583342499998j;
	z23 0.008125000124999903+0.026130208224999604j;
	z31 0.008229166549999617+0.022062500074999436j;
	z32 0.008125000124999903+0.026130208224999604j;
	z33 0.024302083299999635+0.05459374992499984j;
}

object line_configuration {
	name line_config_67_97;
	z11 0.021851325749999484+0.0504308712499995j;
	z12 0.007267992499999618+0.01822443174999978j;
	z13 0.007481060499999546+0.02005681824999943j;
	z21 0.007267992499999618+0.01822443174999978j;
	z22 0.021666666749999966+0.05104166674999977j;
	z23 0.00738636374999986+0.02375473474999959j;
	z31 0.007481060499999546+0.02005681824999943j;
	z32 0.00738636374999986+0.02375473474999959j;
	z33 0.022092802999999984+0.04963068174999954j;
}

object line_configuration {
	name line_config_68_69;
	z11 0.06922916659999993+0.07018229157499996j;
	z12 0;
	z13 0;
	z21 0;
	z22 0;
	z23 0;
	z31 0;
	z32 0;
	z33 0;
}

object line_configuration {
	name line_config_69_70;
	z11 0.08181628779999965+0.08294270822499954j;
	z12 0;
	z13 0;
	z21 0;
	z22 0;
	z23 0;
	z31 0;
	z32 0;
	z33 0;
}

object line_configuration {
	name line_config_70_71;
	z11 0.06922916659999993+0.07018229157499996j;
	z12 0;
	z13 0;
	z21 0;
	z22 0;
	z23 0;
	z31 0;
	z32 0;
	z33 0;
}

object line_configuration {
	name line_config_72_73;
	z11 0;
	z12 0;
	z13 0;
	z21 0;
	z22 0;
	z23 0;
	z31 0;
	z32 0;
	z33 0.06922916659999993+0.07018229157499996j;
}

object line_configuration {
	name line_config_72_76;
	z11 0.01748106059999947+0.0403446969999996j;
	z12 0.005814393999999926+0.014579545399999594j;
	z13 0.005984848399999984+0.016045454599999433j;
	z21 0.005814393999999926+0.014579545399999594j;
	z22 0.01733333339999974+0.040833333399999935j;
	z23 0.005909090999999772+0.019003787799999557j;
	z31 0.005984848399999984+0.016045454599999433j;
	z32 0.005909090999999772+0.019003787799999557j;
	z33 0.017674242399999523+0.039704545399999513j;
}

object line_configuration {
	name line_config_73_74;
	z11 0;
	z12 0;
	z13 0;
	z21 0;
	z22 0;
	z23 0;
	z31 0;
	z32 0;
	z33 0.0881098483999998+0.0893229165499999j;
}

object line_configuration {
	name line_config_74_75;
	z11 0;
	z12 0;
	z13 0;
	z21 0;
	z22 0;
	z23 0;
	z31 0;
	z32 0;
	z33 0.10069696959999952+0.10208333319999947j;
}

object line_configuration {
	name line_config_76_77;
	z11 0.03466666679999948+0.08166666679999987j;
	z12 0.011628787999999852+0.029159090799999763j;
	z13 0.011818181999999544+0.038007575599999684j;
	z21 0.011628787999999852+0.029159090799999763j;
	z22 0.03496212119999952+0.08068939399999978j;
	z23 0.011969696799999967+0.03209090919999944j;
	z31 0.011818181999999544+0.038007575599999684j;
	z32 0.011969696799999967+0.03209090919999944j;
	z33 0.03534848479999963+0.07940909079999961j;
}

object line_configuration {
	name line_config_76_86;
	z11 0.06118371209999959+0.14120643949999975j;
	z12 0.020350378999999738+0.05102840889999972j;
	z13 0.020946969399999654+0.056159091099999454j;
	z21 0.020350378999999738+0.05102840889999972j;
	z22 0.06066666689999967+0.14291666689999946j;
	z23 0.02068181849999949+0.06651325729999988j;
	z31 0.020946969399999654+0.056159091099999454j;
	z32 0.02068181849999949+0.06651325729999988j;
	z33 0.061859848399999494+0.13896590889999974j;
}

object line_configuration {
	name line_config_77_78;
	z11 0.00866666669999987+0.02041666669999968j;
	z12 0.002907196999999963+0.007289772699999797j;
	z13 0.0029545454999995975+0.009501893899999489j;
	z21 0.002907196999999963+0.007289772699999797j;
	z22 0.008740530299999449+0.0201723484999998j;
	z23 0.002992424199999703+0.008022727299999427j;
	z31 0.0029545454999995975+0.009501893899999489j;
	z32 0.002992424199999703+0.008022727299999427j;
	z33 0.008837121199999761+0.01985227269999947j;
}

object line_configuration {
	name line_config_78_79;
	z11 0.019500000074999854+0.04593750007499956j;
	z12 0.006541193249999484+0.016401988574999974j;
	z13 0.006647727374999815+0.021379261274999572j;
	z21 0.006541193249999484+0.016401988574999974j;
	z22 0.01966619317499948+0.045387784124999546j;
	z23 0.006732954449999477+0.018051136424999434j;
	z31 0.006647727374999815+0.021379261274999572j;
	z32 0.006732954449999477+0.018051136424999434j;
	z33 0.019883522699999753+0.044667613574999813j;
}

object line_configuration {
	name line_config_78_80;
	z11 0.04116666682499982+0.09697916682499991j;
	z12 0.013809185749999679+0.03462642032499975j;
	z13 0.014034091124999674+0.04513399602499974j;
	z21 0.013809185749999679+0.03462642032499975j;
	z22 0.04151751892499954+0.09581865537499965j;
	z23 0.0142140149499996+0.038107954674999445j;
	z31 0.014034091124999674+0.04513399602499974j;
	z32 0.0142140149499996+0.038107954674999445j;
	z33 0.04197632569999974+0.09429829532499993j;
}

object line_configuration {
	name line_config_80_81;
	z11 0.01516666672499963+0.03572916672499973j;
	z12 0.0050875947499997905+0.012757102224999787j;
	z13 0.005170454624999729+0.01662831432499954j;
	z21 0.0050875947499997905+0.012757102224999787j;
	z22 0.015295928024999466+0.03530160987499965j;
	z23 0.0052367423499999136+0.014039772774999432j;
	z31 0.005170454624999729+0.01662831432499954j;
	z32 0.0052367423499999136+0.014039772774999432j;
	z33 0.015464962099999873+0.03474147722499979j;
}

object line_configuration {
	name line_config_81_82;
	z11 0.021666666749999966+0.05104166674999977j;
	z12 0.007267992499999618+0.01822443174999978j;
	z13 0.00738636374999986+0.02375473474999959j;
	z21 0.007267992499999618+0.01822443174999978j;
	z22 0.021851325749999484+0.0504308712499995j;
	z23 0.007481060499999546+0.02005681824999943j;
	z31 0.00738636374999986+0.02375473474999959j;
	z32 0.007481060499999546+0.02005681824999943j;
	z33 0.022092802999999984+0.04963068174999954j;
}

object line_configuration {
	name line_config_81_84;
	z11 0;
	z12 0;
	z13 0;
	z21 0;
	z22 0;
	z23 0;
	z31 0;
	z32 0;
	z33 0.16992613620000002+0.172265624775j;
}

object line_configuration {
	name line_config_82_83;
	z11 0.021666666749999966+0.05104166674999977j;
	z12 0.007267992499999618+0.01822443174999978j;
	z13 0.00738636374999986+0.02375473474999959j;
	z21 0.007267992499999618+0.01822443174999978j;
	z22 0.021851325749999484+0.0504308712499995j;
	z23 0.007481060499999546+0.02005681824999943j;
	z31 0.00738636374999986+0.02375473474999959j;
	z32 0.007481060499999546+0.02005681824999943j;
	z33 0.022092802999999984+0.04963068174999954j;
}

object line_configuration {
	name line_config_84_85;
	z11 0;
	z12 0;
	z13 0;
	z21 0;
	z22 0;
	z23 0;
	z31 0;
	z32 0;
	z33 0.11957765139999997+0.12122395817499998j;
}

object line_configuration {
	name line_config_86_87;
	z11 0.03900000014999971+0.0918750001499997j;
	z12 0.013082386499999545+0.03280397714999995j;
	z13 0.01329545474999963+0.04275852254999972j;
	z21 0.013082386499999545+0.03280397714999995j;
	z22 0.03933238634999953+0.09077556824999967j;
	z23 0.01346590889999953+0.036102272849999444j;
	z31 0.01329545474999963+0.04275852254999972j;
	z32 0.01346590889999953+0.036102272849999444j;
	z33 0.03976704539999951+0.08933522714999963j;
}

object line_configuration {
	name line_config_87_88;
	z11 0.0440549241999999+0.044661458274999656j;
	z12 0;
	z13 0;
	z21 0;
	z22 0;
	z23 0;
	z31 0;
	z32 0;
	z33 0;
}

object line_configuration {
	name line_config_87_89;
	z11 0.0238333334249995+0.05614583342499998j;
	z12 0.007994791749999753+0.020046874924999583j;
	z13 0.008125000124999903+0.026130208224999604j;
	z21 0.007994791749999753+0.020046874924999583j;
	z22 0.02403645832499949+0.05547395837499946j;
	z23 0.008229166549999617+0.022062500074999436j;
	z31 0.008125000124999903+0.026130208224999604j;
	z32 0.008229166549999617+0.022062500074999436j;
	z33 0.024302083299999635+0.05459374992499984j;
}

object line_configuration {
	name line_config_89_90;
	z11 0;
	z12 0;
	z13 0;
	z21 0;
	z22 0.06293560599999978+0.0638020832499996j;
	z23 0;
	z31 0;
	z32 0;
	z33 0;
}

object line_configuration {
	name line_config_89_91;
	z11 0.019500000074999854+0.04593750007499956j;
	z12 0.006541193249999484+0.016401988574999974j;
	z13 0.006647727374999815+0.021379261274999572j;
	z21 0.006541193249999484+0.016401988574999974j;
	z22 0.01966619317499948+0.045387784124999546j;
	z23 0.006732954449999477+0.018051136424999434j;
	z31 0.006647727374999815+0.021379261274999572j;
	z32 0.006732954449999477+0.018051136424999434j;
	z33 0.019883522699999753+0.044667613574999813j;
}

object line_configuration {
	name line_config_91_92;
	z11 0;
	z12 0;
	z13 0;
	z21 0;
	z22 0;
	z23 0;
	z31 0;
	z32 0;
	z33 0.0755227271999995+0.07656249989999975j;
}

object line_configuration {
	name line_config_91_93;
	z11 0.019500000074999854+0.04593750007499956j;
	z12 0.006541193249999484+0.016401988574999974j;
	z13 0.006647727374999815+0.021379261274999572j;
	z21 0.006541193249999484+0.016401988574999974j;
	z22 0.01966619317499948+0.045387784124999546j;
	z23 0.006732954449999477+0.018051136424999434j;
	z31 0.006647727374999815+0.021379261274999572j;
	z32 0.006732954449999477+0.018051136424999434j;
	z33 0.019883522699999753+0.044667613574999813j;
}

object line_configuration {
	name line_config_93_94;
	z11 0.06922916659999993+0.07018229157499996j;
	z12 0;
	z13 0;
	z21 0;
	z22 0;
	z23 0;
	z31 0;
	z32 0;
	z33 0;
}

object line_configuration {
	name line_config_93_95;
	z11 0.026000000099999615+0.06125000009999961j;
	z12 0.008721590999999888+0.021869318099999965j;
	z13 0.008863636499999945+0.02850568169999962j;
	z21 0.008721590999999888+0.021869318099999965j;
	z22 0.026221590899999498+0.060517045499999984j;
	z23 0.008977272599999687+0.024068181899999437j;
	z31 0.008863636499999945+0.02850568169999962j;
	z32 0.008977272599999687+0.024068181899999437j;
	z33 0.026511363599999865+0.05955681809999956j;
}

object line_configuration {
	name line_config_95_96;
	z11 0;
	z12 0;
	z13 0;
	z21 0;
	z22 0.050348484799999475+0.051041666599999445j;
	z23 0;
	z31 0;
	z32 0;
	z33 0;
}

object line_configuration {
	name line_config_97_98;
	z11 0.02403645832499949+0.05547395837499946j;
	z12 0.007994791749999753+0.020046874924999583j;
	z13 0.008229166549999617+0.022062500074999436j;
	z21 0.007994791749999753+0.020046874924999583j;
	z22 0.0238333334249995+0.05614583342499998j;
	z23 0.008125000124999903+0.026130208224999604j;
	z31 0.008229166549999617+0.022062500074999436j;
	z32 0.008125000124999903+0.026130208224999604j;
	z33 0.024302083299999635+0.05459374992499984j;
}

object line_configuration {
	name line_config_98_99;
	z11 0.04807291664999956+0.11094791674999947j;
	z12 0.015989583499999505+0.04009374984999974j;
	z13 0.01645833309999981+0.04412500014999945j;
	z21 0.015989583499999505+0.04009374984999974j;
	z22 0.04766666684999958+0.11229166684999996j;
	z23 0.016250000249999806+0.05226041644999979j;
	z31 0.01645833309999981+0.04412500014999945j;
	z32 0.016250000249999806+0.05226041644999979j;
	z33 0.04860416659999984+0.10918749984999968j;
}

object line_configuration {
	name line_config_99_100;
	z11 0.026221590899999498+0.060517045499999984j;
	z12 0.008721590999999888+0.021869318099999965j;
	z13 0.008977272599999687+0.024068181899999437j;
	z21 0.008721590999999888+0.021869318099999965j;
	z22 0.026000000099999615+0.06125000009999961j;
	z23 0.008863636499999945+0.02850568169999962j;
	z31 0.008977272599999687+0.024068181899999437j;
	z32 0.008863636499999945+0.02850568169999962j;
	z33 0.026511363599999865+0.05955681809999956j;
}

object line_configuration {
	name line_config_100_450;
	z11 0.06992424239999961+0.16137878799999955j;
	z12 0.023257575999999704+0.058318181599999526j;
	z13 0.023939393599999935+0.06418181839999945j;
	z21 0.023257575999999704+0.058318181599999526j;
	z22 0.06933333359999955+0.16333333359999974j;
	z23 0.023636363999999663+0.07601515119999995j;
	z31 0.023939393599999935+0.06418181839999945j;
	z32 0.023636363999999663+0.07601515119999995j;
	z33 0.07069696959999983+0.15881818159999977j;
}

object line_configuration {
	name line_config_197_101;
	z11 0.021851325749999484+0.0504308712499995j;
	z12 0.007267992499999618+0.01822443174999978j;
	z13 0.007481060499999546+0.02005681824999943j;
	z21 0.007267992499999618+0.01822443174999978j;
	z22 0.021666666749999966+0.05104166674999977j;
	z23 0.00738636374999986+0.02375473474999959j;
	z31 0.007481060499999546+0.02005681824999943j;
	z32 0.00738636374999986+0.02375473474999959j;
	z33 0.022092802999999984+0.04963068174999954j;
}

object line_configuration {
	name line_config_101_102;
	z11 0;
	z12 0;
	z13 0;
	z21 0;
	z22 0;
	z23 0;
	z31 0;
	z32 0;
	z33 0.05664204539999963+0.05742187492499981j;
}

object line_configuration {
	name line_config_101_105;
	z11 0.02403645832499949+0.05547395837499946j;
	z12 0.007994791749999753+0.020046874924999583j;
	z13 0.008229166549999617+0.022062500074999436j;
	z21 0.007994791749999753+0.020046874924999583j;
	z22 0.0238333334249995+0.05614583342499998j;
	z23 0.008125000124999903+0.026130208224999604j;
	z31 0.008229166549999617+0.022062500074999436j;
	z32 0.008125000124999903+0.026130208224999604j;
	z33 0.024302083299999635+0.05459374992499984j;
}

object line_configuration {
	name line_config_102_103;
	z11 0;
	z12 0;
	z13 0;
	z21 0;
	z22 0;
	z23 0;
	z31 0;
	z32 0;
	z33 0.08181628779999965+0.08294270822499954j;
}

object line_configuration {
	name line_config_103_104;
	z11 0;
	z12 0;
	z13 0;
	z21 0;
	z22 0;
	z23 0;
	z31 0;
	z32 0;
	z33 0.1762196967999996+0.1786458330999998j;
}

object line_configuration {
	name line_config_105_106;
	z11 0;
	z12 0;
	z13 0;
	z21 0;
	z22 0.05664204539999963+0.05742187492499981j;
	z23 0;
	z31 0;
	z32 0;
	z33 0;
}

object line_configuration {
	name line_config_105_108;
	z11 0.028406723474999503+0.06556013262499992j;
	z12 0.009448390249999446+0.023691761274999768j;
	z13 0.009725378649999757+0.026073863724999435j;
	z21 0.009448390249999446+0.023691761274999768j;
	z22 0.028166666774999728+0.06635416677499982j;
	z23 0.00960227287499999+0.030881155174999637j;
	z31 0.009725378649999757+0.026073863724999435j;
	z32 0.00960227287499999+0.030881155174999637j;
	z33 0.028720643899999516+0.06451988627499987j;
}

object line_configuration {
	name line_config_106_107;
	z11 0;
	z12 0;
	z13 0;
	z21 0;
	z22 0.1447518938+0.14674479147499972j;
	z23 0;
	z31 0;
	z32 0;
	z33 0;
}

object line_configuration {
	name line_config_108_109;
	z11 0.11328409079999983+0.11484374984999962j;
	z12 0;
	z13 0;
	z21 0;
	z22 0;
	z23 0;
	z31 0;
	z32 0;
	z33 0;
}

object line_configuration {
	name line_config_108_300;
	z11 0.08740530299999967+0.20172348499999973j;
	z12 0.029071969999999628+0.07289772699999969j;
	z13 0.029924241999999917+0.08022727299999946j;
	z21 0.029071969999999628+0.07289772699999969j;
	z22 0.08666666699999986+0.2041666669999997j;
	z23 0.02954545499999944+0.0950189389999995j;
	z31 0.029924241999999917+0.08022727299999946j;
	z32 0.02954545499999944+0.0950189389999995j;
	z33 0.08837121199999994+0.1985227269999999j;
}

object line_configuration {
	name line_config_109_110;
	z11 0.0755227271999995+0.07656249989999975j;
	z12 0;
	z13 0;
	z21 0;
	z22 0;
	z23 0;
	z31 0;
	z32 0;
	z33 0;
}

object line_configuration {
	name line_config_110_111;
	z11 0.1447518938+0.14674479147499972j;
	z12 0;
	z13 0;
	z21 0;
	z22 0;
	z23 0;
	z31 0;
	z32 0;
	z33 0;
}

object line_configuration {
	name line_config_110_112;
	z11 0.0314678029999996+0.03190104162499951j;
	z12 0;
	z13 0;
	z21 0;
	z22 0;
	z23 0;
	z31 0;
	z32 0;
	z33 0;
}

object line_configuration {
	name line_config_112_113;
	z11 0.1321647725999997+0.13398437482499956j;
	z12 0;
	z13 0;
	z21 0;
	z22 0;
	z23 0;
	z31 0;
	z32 0;
	z33 0;
}

object line_configuration {
	name line_config_113_114;
	z11 0.08181628779999965+0.08294270822499954j;
	z12 0;
	z13 0;
	z21 0;
	z22 0;
	z23 0;
	z31 0;
	z32 0;
	z33 0;
}

object overhead_line {
	name oh_line_149_1;
	phases ABCN;
	from node_149;
	to node_1;
	configuration line_config_149_1;
	length 5280;
}

object overhead_line {
	name oh_line_1_2;
	phases BN;
	from node_1;
	to node_2;
	configuration line_config_1_2;
	length 5280;
}

object overhead_line {
	name oh_line_1_3;
	phases CN;
	from node_1;
	to node_3;
	configuration line_config_1_3;
	length 5280;
}

object overhead_line {
	name oh_line_1_7;
	phases ABCN;
	from node_1;
	to node_7;
	configuration line_config_1_7;
	length 5280;
}

object overhead_line {
	name oh_line_3_4;
	phases CN;
	from node_3;
	to node_4;
	configuration line_config_3_4;
	length 5280;
}

object overhead_line {
	name oh_line_3_5;
	phases CN;
	from node_3;
	to node_5;
	configuration line_config_3_5;
	length 5280;
}

object overhead_line {
	name oh_line_5_6;
	phases CN;
	from node_5;
	to node_6;
	configuration line_config_5_6;
	length 5280;
}

object overhead_line {
	name oh_line_7_8;
	phases ABCN;
	from node_7;
	to node_8;
	configuration line_config_7_8;
	length 5280;
}

object overhead_line {
	name oh_line_8_12;
	phases BN;
	from node_8;
	to node_12;
	configuration line_config_8_12;
	length 5280;
}

object overhead_line {
	name oh_line_8_9;
	phases AN;
	from node_8;
	to node_9;
	configuration line_config_8_9;
	length 5280;
}

object overhead_line {
	name oh_line_8_13;
	phases ABCN;
	from node_8;
	to node_13;
	configuration line_config_8_13;
	length 5280;
}

object overhead_line {
	name oh_line_9r_14;
	phases AN;
	from node_9r;
	to node_14;
	configuration line_config_9r_14;
	length 5280;
}

object overhead_line {
	name oh_line_13_34;
	phases CN;
	from node_13;
	to node_34;
	configuration line_config_13_34;
	length 5280;
}

object overhead_line {
	name oh_line_13_18;
	phases ABCN;
	from node_13;
	to node_18;
	configuration line_config_13_18;
	length 5280;
}

object overhead_line {
	name oh_line_14_11;
	phases AN;
	from node_14;
	to node_11;
	configuration line_config_14_11;
	length 5280;
}

object overhead_line {
	name oh_line_14_10;
	phases AN;
	from node_14;
	to node_10;
	configuration line_config_14_10;
	length 5280;
}

object overhead_line {
	name oh_line_34_15;
	phases CN;
	from node_34;
	to node_15;
	configuration line_config_34_15;
	length 5280;
}

object overhead_line {
	name oh_line_15_16;
	phases CN;
	from node_15;
	to node_16;
	configuration line_config_15_16;
	length 5280;
}

object overhead_line {
	name oh_line_15_17;
	phases CN;
	from node_15;
	to node_17;
	configuration line_config_15_17;
	length 5280;
}

object overhead_line {
	name oh_line_18_19;
	phases AN;
	from node_18;
	to node_19;
	configuration line_config_18_19;
	length 5280;
}

object overhead_line {
	name oh_line_18_21;
	phases ABCN;
	from node_18;
	to node_21;
	configuration line_config_18_21;
	length 5280;
}

object overhead_line {
	name oh_line_19_20;
	phases AN;
	from node_19;
	to node_20;
	configuration line_config_19_20;
	length 5280;
}

object overhead_line {
	name oh_line_21_22;
	phases BN;
	from node_21;
	to node_22;
	configuration line_config_21_22;
	length 5280;
}

object overhead_line {
	name oh_line_21_23;
	phases ABCN;
	from node_21;
	to node_23;
	configuration line_config_21_23;
	length 5280;
}

object overhead_line {
	name oh_line_23_24;
	phases CN;
	from node_23;
	to node_24;
	configuration line_config_23_24;
	length 5280;
}

object overhead_line {
	name oh_line_23_25;
	phases ABCN;
	from node_23;
	to node_25;
	configuration line_config_23_25;
	length 5280;
}

object overhead_line {
	name oh_line_25r_26;
	phases ACN;
	from node_25r;
	to node_26;
	configuration line_config_25r_26;
	length 5280;
}

object overhead_line {
	name oh_line_25_28;
	phases ABCN;
	from node_25;
	to node_28;
	configuration line_config_25_28;
	length 5280;
}

object overhead_line {
	name oh_line_26_27;
	phases ACN;
	from node_26;
	to node_27;
	configuration line_config_26_27;
	length 5280;
}

object overhead_line {
	name oh_line_26_31;
	phases CN;
	from node_26;
	to node_31;
	configuration line_config_26_31;
	length 5280;
}

object overhead_line {
	name oh_line_27_33;
	phases AN;
	from node_27;
	to node_33;
	configuration line_config_27_33;
	length 5280;
}

object overhead_line {
	name oh_line_28_29;
	phases ABCN;
	from node_28;
	to node_29;
	configuration line_config_28_29;
	length 5280;
}

object overhead_line {
	name oh_line_29_30;
	phases ABCN;
	from node_29;
	to node_30;
	configuration line_config_29_30;
	length 5280;
}

object overhead_line {
	name oh_line_30_250;
	phases ABCN;
	from node_30;
	to node_250;
	configuration line_config_30_250;
	length 5280;
}

object overhead_line {
	name oh_line_31_32;
	phases CN;
	from node_31;
	to node_32;
	configuration line_config_31_32;
	length 5280;
}

object overhead_line {
	name oh_line_135_35;
	phases ABCN;
	from node_135;
	to node_35;
	configuration line_config_135_35;
	length 5280;
}

object overhead_line {
	name oh_line_35_36;
	phases ABN;
	from node_35;
	to node_36;
	configuration line_config_35_36;
	length 5280;
}

object overhead_line {
	name oh_line_35_40;
	phases ABCN;
	from node_35;
	to node_40;
	configuration line_config_35_40;
	length 5280;
}

object overhead_line {
	name oh_line_36_37;
	phases AN;
	from node_36;
	to node_37;
	configuration line_config_36_37;
	length 5280;
}

object overhead_line {
	name oh_line_36_38;
	phases BN;
	from node_36;
	to node_38;
	configuration line_config_36_38;
	length 5280;
}

object overhead_line {
	name oh_line_38_39;
	phases BN;
	from node_38;
	to node_39;
	configuration line_config_38_39;
	length 5280;
}

object overhead_line {
	name oh_line_40_41;
	phases CN;
	from node_40;
	to node_41;
	configuration line_config_40_41;
	length 5280;
}

object overhead_line {
	name oh_line_40_42;
	phases ABCN;
	from node_40;
	to node_42;
	configuration line_config_40_42;
	length 5280;
}

object overhead_line {
	name oh_line_42_43;
	phases BN;
	from node_42;
	to node_43;
	configuration line_config_42_43;
	length 5280;
}

object overhead_line {
	name oh_line_42_44;
	phases ABCN;
	from node_42;
	to node_44;
	configuration line_config_42_44;
	length 5280;
}

object overhead_line {
	name oh_line_44_45;
	phases AN;
	from node_44;
	to node_45;
	configuration line_config_44_45;
	length 5280;
}

object overhead_line {
	name oh_line_44_47;
	phases ABCN;
	from node_44;
	to node_47;
	configuration line_config_44_47;
	length 5280;
}

object overhead_line {
	name oh_line_45_46;
	phases AN;
	from node_45;
	to node_46;
	configuration line_config_45_46;
	length 5280;
}

object overhead_line {
	name oh_line_47_48;
	phases ABCN;
	from node_47;
	to node_48;
	configuration line_config_47_48;
	length 5280;
}

object overhead_line {
	name oh_line_47_49;
	phases ABCN;
	from node_47;
	to node_49;
	configuration line_config_47_49;
	length 5280;
}

object overhead_line {
	name oh_line_49_50;
	phases ABCN;
	from node_49;
	to node_50;
	configuration line_config_49_50;
	length 5280;
}

object overhead_line {
	name oh_line_50_51;
	phases ABCN;
	from node_50;
	to node_51;
	configuration line_config_50_51;
	length 5280;
}

object overhead_line {
	name oh_line_51_151;
	phases ABCN;
	from node_51;
	to node_151;
	configuration line_config_51_151;
	length 5280;
}

object overhead_line {
	name oh_line_152_52;
	phases ABCN;
	from node_152;
	to node_52;
	configuration line_config_152_52;
	length 5280;
}

object overhead_line {
	name oh_line_52_53;
	phases ABCN;
	from node_52;
	to node_53;
	configuration line_config_52_53;
	length 5280;
}

object overhead_line {
	name oh_line_53_54;
	phases ABCN;
	from node_53;
	to node_54;
	configuration line_config_53_54;
	length 5280;
}

object overhead_line {
	name oh_line_54_55;
	phases ABCN;
	from node_54;
	to node_55;
	configuration line_config_54_55;
	length 5280;
}

object overhead_line {
	name oh_line_54_57;
	phases ABCN;
	from node_54;
	to node_57;
	configuration line_config_54_57;
	length 5280;
}

object overhead_line {
	name oh_line_55_56;
	phases ABCN;
	from node_55;
	to node_56;
	configuration line_config_55_56;
	length 5280;
}

object overhead_line {
	name oh_line_57_58;
	phases BN;
	from node_57;
	to node_58;
	configuration line_config_57_58;
	length 5280;
}

object overhead_line {
	name oh_line_57_60;
	phases ABCN;
	from node_57;
	to node_60;
	configuration line_config_57_60;
	length 5280;
}

object overhead_line {
	name oh_line_58_59;
	phases BN;
	from node_58;
	to node_59;
	configuration line_config_58_59;
	length 5280;
}

object overhead_line {
	name oh_line_60_61;
	phases ABCN;
	from node_60;
	to node_61;
	configuration line_config_60_61;
	length 5280;
}

object overhead_line {
	name oh_line_60_62;
	phases ABCN;
	from node_60;
	to node_62;
	configuration line_config_60_62;
	length 5280;
}

object overhead_line {
	name oh_line_62_63;
	phases ABCN;
	from node_62;
	to node_63;
	configuration line_config_62_63;
	length 5280;
}

object overhead_line {
	name oh_line_63_64;
	phases ABCN;
	from node_63;
	to node_64;
	configuration line_config_63_64;
	length 5280;
}

object overhead_line {
	name oh_line_64_65;
	phases ABCN;
	from node_64;
	to node_65;
	configuration line_config_64_65;
	length 5280;
}

object overhead_line {
	name oh_line_65_66;
	phases ABCN;
	from node_65;
	to node_66;
	configuration line_config_65_66;
	length 5280;
}

object overhead_line {
	name oh_line_160r_67;
	phases ABCN;
	from node_160r;
	to node_67;
	configuration line_config_160r_67;
	length 5280;
}

object overhead_line {
	name oh_line_67_68;
	phases AN;
	from node_67;
	to node_68;
	configuration line_config_67_68;
	length 5280;
}

object overhead_line {
	name oh_line_67_72;
	phases ABCN;
	from node_67;
	to node_72;
	configuration line_config_67_72;
	length 5280;
}

object overhead_line {
	name oh_line_67_97;
	phases ABCN;
	from node_67;
	to node_97;
	configuration line_config_67_97;
	length 5280;
}

object overhead_line {
	name oh_line_68_69;
	phases AN;
	from node_68;
	to node_69;
	configuration line_config_68_69;
	length 5280;
}

object overhead_line {
	name oh_line_69_70;
	phases AN;
	from node_69;
	to node_70;
	configuration line_config_69_70;
	length 5280;
}

object overhead_line {
	name oh_line_70_71;
	phases AN;
	from node_70;
	to node_71;
	configuration line_config_70_71;
	length 5280;
}

object overhead_line {
	name oh_line_72_73;
	phases CN;
	from node_72;
	to node_73;
	configuration line_config_72_73;
	length 5280;
}

object overhead_line {
	name oh_line_72_76;
	phases ABCN;
	from node_72;
	to node_76;
	configuration line_config_72_76;
	length 5280;
}

object overhead_line {
	name oh_line_73_74;
	phases CN;
	from node_73;
	to node_74;
	configuration line_config_73_74;
	length 5280;
}

object overhead_line {
	name oh_line_74_75;
	phases CN;
	from node_74;
	to node_75;
	configuration line_config_74_75;
	length 5280;
}

object overhead_line {
	name oh_line_76_77;
	phases ABCN;
	from node_76;
	to node_77;
	configuration line_config_76_77;
	length 5280;
}

object overhead_line {
	name oh_line_76_86;
	phases ABCN;
	from node_76;
	to node_86;
	configuration line_config_76_86;
	length 5280;
}

object overhead_line {
	name oh_line_77_78;
	phases ABCN;
	from node_77;
	to node_78;
	configuration line_config_77_78;
	length 5280;
}

object overhead_line {
	name oh_line_78_79;
	phases ABCN;
	from node_78;
	to node_79;
	configuration line_config_78_79;
	length 5280;
}

object overhead_line {
	name oh_line_78_80;
	phases ABCN;
	from node_78;
	to node_80;
	configuration line_config_78_80;
	length 5280;
}

object overhead_line {
	name oh_line_80_81;
	phases ABCN;
	from node_80;
	to node_81;
	configuration line_config_80_81;
	length 5280;
}

object overhead_line {
	name oh_line_81_82;
	phases ABCN;
	from node_81;
	to node_82;
	configuration line_config_81_82;
	length 5280;
}

object overhead_line {
	name oh_line_81_84;
	phases CN;
	from node_81;
	to node_84;
	configuration line_config_81_84;
	length 5280;
}

object overhead_line {
	name oh_line_82_83;
	phases ABCN;
	from node_82;
	to node_83;
	configuration line_config_82_83;
	length 5280;
}

object overhead_line {
	name oh_line_84_85;
	phases CN;
	from node_84;
	to node_85;
	configuration line_config_84_85;
	length 5280;
}

object overhead_line {
	name oh_line_86_87;
	phases ABCN;
	from node_86;
	to node_87;
	configuration line_config_86_87;
	length 5280;
}

object overhead_line {
	name oh_line_87_88;
	phases AN;
	from node_87;
	to node_88;
	configuration line_config_87_88;
	length 5280;
}

object overhead_line {
	name oh_line_87_89;
	phases ABCN;
	from node_87;
	to node_89;
	configuration line_config_87_89;
	length 5280;
}

object overhead_line {
	name oh_line_89_90;
	phases BN;
	from node_89;
	to node_90;
	configuration line_config_89_90;
	length 5280;
}

object overhead_line {
	name oh_line_89_91;
	phases ABCN;
	from node_89;
	to node_91;
	configuration line_config_89_91;
	length 5280;
}

object overhead_line {
	name oh_line_91_92;
	phases CN;
	from node_91;
	to node_92;
	configuration line_config_91_92;
	length 5280;
}

object overhead_line {
	name oh_line_91_93;
	phases ABCN;
	from node_91;
	to node_93;
	configuration line_config_91_93;
	length 5280;
}

object overhead_line {
	name oh_line_93_94;
	phases AN;
	from node_93;
	to node_94;
	configuration line_config_93_94;
	length 5280;
}

object overhead_line {
	name oh_line_93_95;
	phases ABCN;
	from node_93;
	to node_95;
	configuration line_config_93_95;
	length 5280;
}

object overhead_line {
	name oh_line_95_96;
	phases BN;
	from node_95;
	to node_96;
	configuration line_config_95_96;
	length 5280;
}

object overhead_line {
	name oh_line_97_98;
	phases ABCN;
	from node_97;
	to node_98;
	configuration line_config_97_98;
	length 5280;
}

object overhead_line {
	name oh_line_98_99;
	phases ABCN;
	from node_98;
	to node_99;
	configuration line_config_98_99;
	length 5280;
}

object overhead_line {
	name oh_line_99_100;
	phases ABCN;
	from node_99;
	to node_100;
	configuration line_config_99_100;
	length 5280;
}

object overhead_line {
	name oh_line_100_450;
	phases ABCN;
	from node_100;
	to node_450;
	configuration line_config_100_450;
	length 5280;
}

object overhead_line {
	name oh_line_197_101;
	phases ABCN;
	from node_197;
	to node_101;
	configuration line_config_197_101;
	length 5280;
}

object overhead_line {
	name oh_line_101_102;
	phases CN;
	from node_101;
	to node_102;
	configuration line_config_101_102;
	length 5280;
}

object overhead_line {
	name oh_line_101_105;
	phases ABCN;
	from node_101;
	to node_105;
	configuration line_config_101_105;
	length 5280;
}

object overhead_line {
	name oh_line_102_103;
	phases CN;
	from node_102;
	to node_103;
	configuration line_config_102_103;
	length 5280;
}

object overhead_line {
	name oh_line_103_104;
	phases CN;
	from node_103;
	to node_104;
	configuration line_config_103_104;
	length 5280;
}

object overhead_line {
	name oh_line_105_106;
	phases BN;
	from node_105;
	to node_106;
	configuration line_config_105_106;
	length 5280;
}

object overhead_line {
	name oh_line_105_108;
	phases ABCN;
	from node_105;
	to node_108;
	configuration line_config_105_108;
	length 5280;
}

object overhead_line {
	name oh_line_106_107;
	phases BN;
	from node_106;
	to node_107;
	configuration line_config_106_107;
	length 5280;
}

object overhead_line {
	name oh_line_108_109;
	phases AN;
	from node_108;
	to node_109;
	configuration line_config_108_109;
	length 5280;
}

object overhead_line {
	name oh_line_108_300;
	phases ABCN;
	from node_108;
	to node_300;
	configuration line_config_108_300;
	length 5280;
}

object overhead_line {
	name oh_line_109_110;
	phases AN;
	from node_109;
	to node_110;
	configuration line_config_109_110;
	length 5280;
}

object overhead_line {
	name oh_line_110_111;
	phases AN;
	from node_110;
	to node_111;
	configuration line_config_110_111;
	length 5280;
}

object overhead_line {
	name oh_line_110_112;
	phases AN;
	from node_110;
	to node_112;
	configuration line_config_110_112;
	length 5280;
}

object overhead_line {
	name oh_line_112_113;
	phases AN;
	from node_112;
	to node_113;
	configuration line_config_112_113;
	length 5280;
}

object overhead_line {
	name oh_line_113_114;
	phases AN;
	from node_113;
	to node_114;
	configuration line_config_113_114;
	length 5280;
}

object load {
	name load_1;
	parent node_1;
	phases ABC;
	nominal_voltage 2401.777119828844;
	constant_power_A 40000.2272490316+20000.4407497588j;
	constant_power_B 0;
	constant_power_C 0;
}

object load {
	name load_2;
	parent node_2;
	phases B;
	nominal_voltage 2401.777119828844;
	constant_power_A 0;
	constant_power_B 19999.875400555098+9999.9564546066j;
	constant_power_C 0;
}

object load {
	name load_7;
	parent node_7;
	phases ABC;
	nominal_voltage 2401.777119828844;
	constant_power_A 20000.1946459075+10000.3876062575j;
	constant_power_B 0;
	constant_power_C 0;
}

object load {
	name load_4;
	parent node_4;
	phases C;
	nominal_voltage 2401.777119828844;
	constant_power_A 0;
	constant_power_B 0;
	constant_power_C 40000.101119394305+19999.8482418277j;
}

object load {
	name load_5;
	parent node_5;
	phases C;
	nominal_voltage 2401.777119828844;
	constant_power_A 0;
	constant_power_B 0;
	constant_power_C 20522.701326189297+10261.246886713j;
}

object load {
	name load_6;
	parent node_6;
	phases C;
	nominal_voltage 2401.777119828844;
	constant_power_A 0;
	constant_power_B 0;
	constant_power_C 42062.5968138433+21031.0857105504j;
}

object load {
	name load_12;
	parent node_12;
	phases B;
	nominal_voltage 2401.777119828844;
	constant_power_A 0;
	constant_power_B 19999.7214686926+9999.9006670729j;
	constant_power_C 0;
}

object load {
	name load_9;
	parent node_9;
	phases A;
	nominal_voltage 2401.777119828844;
	constant_power_A 40000.5018338598+20001.0083000444j;
	constant_power_B 0;
	constant_power_C 0;
}

object load {
	name load_34;
	parent node_34;
	phases C;
	nominal_voltage 2401.777119828844;
	constant_power_A 0;
	constant_power_B 0;
	constant_power_C 41038.147885479295+20518.450420390098j;
}

object load {
	name load_11;
	parent node_11;
	phases A;
	nominal_voltage 2401.777119828844;
	constant_power_A 40489.6556015658+20245.595765380298j;
...